data/pglib_opf_case2869_pegase_storage.m
%%%%%%%%%%%%%%%%%%%%%%%%%%%%%%%%%%%%%%%%%%%%%%%%%%%%%%%%%%%%%%%%%%%%%%%%%%%
%%%%                                                                  %%%%%
%%%%    IEEE PES Power Grid Library - Optimal Power Flow - v23.07     %%%%%
%%%%          (https://github.com/power-grid-lib/pglib-opf)           %%%%%
%%%%               Benchmark Group - Typical Operations               %%%%%
%%%%                         23 - July - 2023                         %%%%%
%%%%                                                                  %%%%%
%%%%%%%%%%%%%%%%%%%%%%%%%%%%%%%%%%%%%%%%%%%%%%%%%%%%%%%%%%%%%%%%%%%%%%%%%%%
%
%CASE2869PEGASE  Power flow data for large part of European system.
%   Please see CASEFORMAT for details on the case file format.
%
%   This case accurately represents the size and complexity of part of the
%   European high voltage transmission network. The network contains 2,869
%   buses, 510 generators, and 4,582 branches and it operates at 380, 220,
%   150, and 110 kV. Please note that the data are fictitious and do not
%   correspond to real world data. They can thus be used to validate
%   methods and tools but should not be used for operation and planning of
%   the European grid.
%
%   The data stems from the Pan European Grid Advanced Simulation and State
%   Estimation (PEGASE) project, part of the 7th Framework Program of the
%   European Union (http://www.fp7-pegase.com/). When publishing results
%   based on this data, please cite:
%
%     S. Fliscounakis, P. Panciatici, F. Capitanescu, and L. Wehenkel,
%     "Contingency ranking with respect to overloads in very large power
%     systems taking into account uncertainty, preventive and corrective
%     actions", Power Systems, IEEE Trans. on, (28)4:4909-4917, 2013.
%     http://dx.doi.org/10.1109/TPWRS.2013.2251015
%
%   Remarks:
%
%   1. Line flow limits are the current flow limits found in PEGASE data.
%
%   2. PEGASE data contains asymmetric shunt conductance and susceptance in
%   the PI transmission line model of branches. Thus total line charging
%   susceptance of branches is set to 0 p.u. and the nodal representation
%   of shunt condutance and susceptance is used. As a result, power flow
%   equations are left unchanged compared with original PEGASE data.
%   However, line flow constraints in the optimal flow problem are
%   modified.
%
%   3. Identical linear costs are used for all generators to form a loss
%   minimizing OPF objective function.
%
%   4. Since some parts of the network are aggregated, some generators
%   (e.g. with negative PMIN) represent aggregations of multiple loads
%   and generators.
%
%   Cédric Josz, Stéphane Fliscounakis, Jean Maeght, Patrick Panciatici
%   firstname.lastname@rte-france.com
%   Réseau de Transport d'Electricité (French Transmission System Operator)
%   Département Expertise Système, Immeuble "Le Colbert"
%   9 rue de la Porte de Buc, 78000 Versailles Cedex, France
%   March 18th, 2015
%
%   Copyright (c) 2015 by Cédric Josz, Stéphane Fliscounakis, Jean Maeght,
%   and Patrick Panciatici
%   Licensed under the Creative Commons Attribution 4.0 International license,
%   http://creativecommons.org/licenses/by/4.0/
%
% Modified to have additional storage capacity and increased gencost
function mpc = pglib_opf_case2869_pegase
mpc.version = '2';
mpc.baseMVA = 100.0;

%% bus data
%	bus_i	type	Pd	Qd	Gs	Bs	area	Vm	Va	baseKV	zone	Vmax	Vmin
mpc.bus = [
	3	 1	 151.0	 48.8	 0.0	 4.69	 0	    1.00000	    0.00000	 220.0	 5	    1.10000	    0.90000;
	4	 1	 171.41	 23.4	 0.0	 2.1	 0	    1.00000	    0.00000	 220.0	 5	    1.10000	    0.90000;
	10	 1	 134.0	 24.7	 0.0	 12.44	 0	    1.00000	    0.00000	 220.0	 5	    1.10000	    0.90000;
	15	 1	 59.67	 26.7	 0.0	 12.84	 0	    1.00000	    0.00000	 220.0	 4	    1.10000	    0.90000;
	21	 1	 161.2	 39.3	 0.0	 30.71	 0	    1.00000	    0.00000	 220.0	 5	    1.10000	    0.90000;
	22	 1	 0.0	 -0.0	 0.0	 0.85	 0	    1.00000	    0.00000	 220.0	 5	    1.10000	    0.90000;
	26	 1	 167.3	 54.8	 0.0	 110.54	 0	    1.00000	    0.00000	 380.0	 5	    1.10000	    0.90000;
	29	 1	 152.9	 49.4	 0.0	 27.65	 0	    1.00000	    0.00000	 380.0	 5	    1.10000	    0.90000;
	32	 2	 0.0	 0.0	 0.0	 0.0	 0	    1.00000	    0.00000	 220.0	 4	    1.10000	    0.90000;
	33	 2	 0.0	 0.0	 0.0	 0.0	 0	    1.00000	    0.00000	 220.0	 4	    1.10000	    0.90000;
	38	 1	 42.75	 12.8	 0.0	 13.3	 0	    1.00000	    0.00000	 220.0	 8	    1.10000	    0.90000;
	39	 2	 0.0	 0.0	 0.0	 0.0	 0	    1.00000	    0.00000	 150.0	 10	    1.10000	    0.90000;
	42	 1	 20.82	 7.9	 0.0	 26.89	 0	    1.00000	    0.00000	 380.0	 4	    1.10000	    0.90000;
	44	 1	 -0.0	 0.0	 0.0	 7.27	 0	    1.00000	    0.00000	 220.0	 5	    1.10000	    0.90000;
	51	 2	 0.0	 0.0	 0.0	 0.0	 0	    1.00000	    0.00000	 220.0	 4	    1.10000	    0.90000;
	52	 1	 127.6	 31.8	 0.0	 20.51	 0	    1.00000	    0.00000	 150.0	 8	    1.10000	    0.90000;
	53	 1	 48.65	 16.1	 0.0	 7.14	 0	    1.00000	    0.00000	 220.0	 5	    1.10000	    0.90000;
	58	 1	 0.0	 0.0	 0.0	 2.31	 0	    1.00000	    0.00000	 380.0	 5	    1.10000	    0.90000;
	59	 1	 119.2	 20.7	 0.0	 3.31	 0	    1.00000	    0.00000	 220.0	 5	    1.10000	    0.90000;
	69	 1	 62.87	 20.5	 0.0	 1.15	 0	    1.00000	    0.00000	 150.0	 8	    1.10000	    0.90000;
	71	 1	 126.3	 42.4	 0.0	 55.24	 0	    1.00000	    0.00000	 150.0	 8	    1.10000	    0.90000;
	72	 1	 6.91	 -4.6	 0.0	 5.75	 0	    1.00000	    0.00000	 220.0	 4	    1.10000	    0.90000;
	75	 1	 38.74	 6.1	 0.0	 1.17	 0	    1.00000	    0.00000	 220.0	 4	    1.10000	    0.90000;
	76	 1	 22.13	 10.7	 0.0	 14.21	 0	    1.00000	    0.00000	 220.0	 8	    1.10000	    0.90000;
	77	 1	 -0.0	 -0.0	 0.0	 0.73	 0	    1.00000	    0.00000	 220.0	 4	    1.10000	    0.90000;
	89	 1	 0.0	 0.0	 0.199111	 4.530599	 0	    1.00000	    0.00000	 380.0	 2	    1.10000	    0.90000;
	90	 1	 363.25	 115.39	 0.0	 3.95	 0	    1.00000	    0.00000	 220.0	 5	    1.10000	    0.90000;
	91	 1	 -0.0	 0.0	 0.0	 0.02	 0	    1.00000	    0.00000	 150.0	 8	    1.10000	    0.90000;
	96	 1	 -8.4	 28.66	 0.0	 3.49	 0	    1.00000	    0.00000	 220.0	 5	    1.10000	    0.90000;
	113	 1	 -0.0	 -0.0	 0.0	 6.532711	 0	    1.00000	    0.00000	 380.0	 5	    1.10000	    0.90000;
	115	 1	 0.0	 -0.0	 0.0	 4.21	 0	    1.00000	    0.00000	 220.0	 5	    1.10000	    0.90000;
	118	 1	 704.53	 -35.33	 0.0	 13.102834	 0	    1.00000	    0.00000	 380.0	 5	    1.10000	    0.90000;
	124	 2	 0.0	 0.0	 0.0	 0.0	 0	    1.00000	    0.00000	 220.0	 5	    1.10000	    0.90000;
	128	 1	 23.73	 12.7	 0.0	 0.52	 0	    1.00000	    0.00000	 220.0	 5	    1.10000	    0.90000;
	130	 1	 -0.0	 0.0	 0.135375	 47.750675	 0	    1.00000	    0.00000	 380.0	 10	    1.10000	    0.90000;
	132	 1	 0.0	 -0.0	 0.0	 21.39	 0	    1.00000	    0.00000	 380.0	 1	    1.10000	    0.90000;
	133	 1	 38.14	 12.5	 0.0	 6.28	 0	    1.00000	    0.00000	 150.0	 8	    1.10000	    0.90000;
	138	 1	 -75.38	 7.8	 0.0	 29.9	 0	    1.00000	    0.00000	 380.0	 10	    1.10000	    0.90000;
	139	 1	 -764.34	 66.91	 0.0	 33.47	 0	    1.00000	    0.00000	 380.0	 8	    1.10000	    0.90000;
	140	 1	 0.0	 0.0	 0.0	 4.14	 0	    1.00000	    0.00000	 220.0	 8	    1.10000	    0.90000;
	143	 1	 0.0	 0.0	 0.0	 0.0	 0	    1.00000	    0.00000	 150.0	 8	    1.10000	    0.90000;
	145	 1	 38.34	 5.6	 0.0	 7.64	 0	    1.00000	    0.00000	 220.0	 5	    1.10000	    0.90000;
	148	 1	 32.34	 12.0	 0.0	 6.1	 0	    1.00000	    0.00000	 220.0	 5	    1.10000	    0.90000;
	150	 2	 0.0	 0.0	 0.0	 0.0	 0	    1.00000	    0.00000	 220.0	 5	    1.10000	    0.90000;
	163	 1	 147.76	 32.73	 0.0	 8.34	 0	    1.00000	    0.00000	 220.0	 5	    1.10000	    0.90000;
	164	 1	 0.0	 -0.0	 0.0	 5.17	 0	    1.00000	    0.00000	 150.0	 8	    1.10000	    0.90000;
	171	 1	 100.8	 13.2	 0.0	 5.24	 0	    1.00000	    0.00000	 220.0	 5	    1.10000	    0.90000;
	172	 1	 111.7	 10.96	 0.0	 4.22	 0	    1.00000	    0.00000	 220.0	 4	    1.10000	    0.90000;
	174	 1	 370.5	 -17.0	 0.0	 9.91	 0	    1.00000	    0.00000	 220.0	 5	    1.10000	    0.90000;
	177	 1	 94.9	 36.2	 0.0	 16.46	 0	    1.00000	    0.00000	 220.0	 10	    1.10000	    0.90000;
	179	 2	 0.0	 0.0	 0.0	 0.0	 0	    1.00000	    0.00000	 380.0	 4	    1.10000	    0.90000;
	184	 1	 -0.0	 -0.0	 0.0	 2.42	 0	    1.00000	    0.00000	 220.0	 5	    1.10000	    0.90000;
	188	 1	 36.84	 13.9	 0.0	 3.3	 0	    1.00000	    0.00000	 220.0	 5	    1.10000	    0.90000;
	194	 2	 0.0	 0.0	 0.0	 0.0	 0	    1.00000	    0.00000	 150.0	 8	    1.10000	    0.90000;
	195	 1	 73.14	 21.55	 0.0	 8.52	 0	    1.00000	    0.00000	 220.0	 5	    1.10000	    0.90000;
	196	 1	 0.0	 -0.0	 0.0	 12.48	 0	    1.00000	    0.00000	 220.0	 5	    1.10000	    0.90000;
	198	 1	 39.74	 11.8	 0.0	 1.44	 0	    1.00000	    0.00000	 220.0	 5	    1.10000	    0.90000;
	199	 1	 86.8	 28.4	 0.0	 1.34	 0	    1.00000	    0.00000	 150.0	 8	    1.10000	    0.90000;
	201	 2	 0.0	 0.0	 0.0	 0.0	 0	    1.00000	    0.00000	 220.0	 4	    1.10000	    0.90000;
	205	 1	 46.15	 18.2	 0.0	 1.29	 0	    1.00000	    0.00000	 150.0	 8	    1.10000	    0.90000;
	207	 1	 321.98	 84.4	 0.0	 1.34	 0	    1.00000	    0.00000	 220.0	 5	    1.10000	    0.90000;
	211	 1	 75.28	 19.2	 0.0	 1.9	 0	    1.00000	    0.00000	 110.0	 8	    1.10000	    0.90000;
	216	 1	 155.6	 54.7	 0.0	 2.21	 0	    1.00000	    0.00000	 220.0	 5	    1.10000	    0.90000;
	217	 1	 105.2	 0.1	 0.0	 7.36	 0	    1.00000	    0.00000	 220.0	 5	    1.10000	    0.90000;
	218	 1	 69.83	 15.12	 0.0	 2.23	 0	    1.00000	    0.00000	 220.0	 5	    1.10000	    0.90000;
	221	 2	 0.0	 0.0	 0.0	 0.0	 0	    1.00000	    0.00000	 380.0	 5	    1.10000	    0.90000;
	225	 1	 0.0	 0.0	 0.0	 1.15	 0	    1.00000	    0.00000	 220.0	 5	    1.10000	    0.90000;
	228	 1	 -23.43	 57.4	 0.0	 0.0	 0	    1.00000	    0.00000	 150.0	 2	    1.10000	    0.90000;
	230	 1	 152.07	 22.52	 0.0	 7.87	 0	    1.00000	    0.00000	 220.0	 4	    1.10000	    0.90000;
	231	 1	 -0.13	 -1.0	 0.0	 0.0	 0	    1.00000	    0.00000	 110.0	 8	    1.10000	    0.90000;
	236	 1	 45.85	 7.0	 0.0	 1.05	 0	    1.00000	    0.00000	 220.0	 4	    1.10000	    0.90000;
	243	 1	 0.0	 -0.01	 0.0	 13.49	 0	    1.00000	    0.00000	 150.0	 8	    1.10000	    0.90000;
	244	 1	 -0.0	 -0.0	 0.0	 0.68	 0	    1.00000	    0.00000	 150.0	 8	    1.10000	    0.90000;
	249	 1	 -0.0	 -0.0	 0.0	 26.3	 0	    1.00000	    0.00000	 220.0	 4	    1.10000	    0.90000;
	257	 1	 113.9	 24.5	 0.0	 6.72	 0	    1.00000	    0.00000	 220.0	 4	    1.10000	    0.90000;
	261	 1	 -0.0	 0.0	 0.0	 1.29	 0	    1.00000	    0.00000	 380.0	 10	    1.10000	    0.90000;
	264	 1	 38.74	 9.0	 0.0	 0.57	 0	    1.00000	    0.00000	 220.0	 4	    1.10000	    0.90000;
	266	 1	 0.0	 -0.0	 0.0	 140.96	 0	    1.00000	    0.00000	 380.0	 4	    1.10000	    0.90000;
	267	 1	 103.8	 2.7	 0.0	 3.33	 0	    1.00000	    0.00000	 220.0	 4	    1.10000	    0.90000;
	268	 1	 -0.13	 -1.0	 0.0	 0.0	 0	    1.00000	    0.00000	 220.0	 8	    1.10000	    0.90000;
	271	 1	 96.7	 26.8	 0.0	 0.0	 0	    1.00000	    0.00000	 150.0	 2	    1.10000	    0.90000;
	275	 1	 102.1	 25.3	 0.0	 1.11	 0	    1.00000	    0.00000	 150.0	 8	    1.10000	    0.90000;
	280	 1	 119.6	 29.6	 0.0	 5.34	 0	    1.00000	    0.00000	 220.0	 5	    1.10000	    0.90000;
	281	 1	 -0.0	 -0.0	 0.0	 18.07	 0	    1.00000	    0.00000	 380.0	 8	    1.10000	    0.90000;
	283	 1	 27.33	 11.9	 0.0	 1.17	 0	    1.00000	    0.00000	 220.0	 5	    1.10000	    0.90000;
	284	 1	 191.2	 -3.4	 0.0	 19.21	 0	    1.00000	    0.00000	 220.0	 4	    1.10000	    0.90000;
	292	 1	 13.82	 1.4	 0.0	 0.7	 0	    1.00000	    0.00000	 220.0	 5	    1.10000	    0.90000;
	297	 1	 23.73	 9.4	 0.0	 1.45	 0	    1.00000	    0.00000	 150.0	 8	    1.10000	    0.90000;
	299	 2	 0.0	 0.0	 0.0	 0.0	 0	    1.00000	    0.00000	 380.0	 4	    1.10000	    0.90000;
	304	 1	 2.2	 0.5	 0.0	 0.21	 0	    1.00000	    0.00000	 150.0	 10	    1.10000	    0.90000;
	305	 1	 103.0	 12.0	 0.0	 0.63	 0	    1.00000	    0.00000	 220.0	 5	    1.10000	    0.90000;
	306	 1	 -0.0	 0.0	 0.0	 4.76	 0	    1.00000	    0.00000	 220.0	 5	    1.10000	    0.90000;
	311	 1	 42.05	 17.2	 0.0	 1.31	 0	    1.00000	    0.00000	 150.0	 8	    1.10000	    0.90000;
	312	 1	 -0.16	 -2.91	 0.0	 0.43	 0	    1.00000	    0.00000	 110.0	 8	    1.10000	    0.90000;
	314	 1	 163.1	 46.3	 0.0	 10.6	 0	    1.00000	    0.00000	 220.0	 5	    1.10000	    0.90000;
	315	 1	 -0.0	 -0.0	 0.0	 2.13	 0	    1.00000	    0.00000	 220.0	 10	    1.10000	    0.90000;
	317	 1	 -0.0	 -0.0	 0.045946	 -1.82203	 0	    1.00000	    0.00000	 380.0	 2	    1.10000	    0.90000;
	322	 1	 303.8	 85.4	 0.0	 3.63	 0	    1.00000	    0.00000	 220.0	 10	    1.10000	    0.90000;
	326	 1	 0.0	 0.0	 0.0	 0.0	 0	    1.00000	    0.00000	 220.0	 8	    1.10000	    0.90000;
	333	 1	 524.5	 43.0	 0.0	 6.85	 0	    1.00000	    0.00000	 220.0	 5	    1.10000	    0.90000;
	338	 2	 0.0	 0.0	 0.0	 0.0	 0	    1.00000	    0.00000	 220.0	 5	    1.10000	    0.90000;
	344	 1	 372.8	 147.5	 0.0	 27.73	 0	    1.00000	    0.00000	 150.0	 8	    1.10000	    0.90000;
	346	 1	 197.5	 48.3	 0.0	 0.71	 0	    1.00000	    0.00000	 220.0	 5	    1.10000	    0.90000;
	349	 1	 -0.0	 0.0	 0.0	 15.15	 0	    1.00000	    0.00000	 150.0	 8	    1.10000	    0.90000;
	350	 1	 110.4	 26.2	 0.0	 5.62	 0	    1.00000	    0.00000	 220.0	 5	    1.10000	    0.90000;
	351	 1	 -0.15	 -1.93	 0.0	 0.0	 0	    1.00000	    0.00000	 220.0	 8	    1.10000	    0.90000;
	352	 2	 0.0	 0.0	 0.0	 0.0	 0	    1.00000	    0.00000	 380.0	 5	    1.10000	    0.90000;
	360	 1	 35.54	 11.5	 0.0	 3.65	 0	    1.00000	    0.00000	 110.0	 8	    1.10000	    0.90000;
	367	 1	 65.17	 -51.5	 0.0	 4.85	 0	    1.00000	    0.00000	 220.0	 5	    1.10000	    0.90000;
	369	 1	 -0.0	 0.0	 0.0	 3.78	 0	    1.00000	    0.00000	 220.0	 8	    1.10000	    0.90000;
	370	 1	 56.76	 23.2	 0.0	 0.49	 0	    1.00000	    0.00000	 150.0	 8	    1.10000	    0.90000;
	377	 1	 -0.18	 -1.0	 0.0	 0.0	 0	    1.00000	    0.00000	 150.0	 8	    1.10000	    0.90000;
	380	 1	 -95.71	 -2.8	 0.0	 7.25	 0	    1.00000	    0.00000	 220.0	 10	    1.10000	    0.90000;
	385	 1	 -0.0	 -0.0	 0.0	 105.84	 0	    1.00000	    0.00000	 380.0	 4	    1.10000	    0.90000;
	387	 1	 -0.19	 -4.38	 0.0	 0.0	 0	    1.00000	    0.00000	 150.0	 8	    1.10000	    0.90000;
	389	 2	 0.0	 0.0	 0.0	 0.0	 0	    1.00000	    0.00000	 150.0	 10	    1.10000	    0.90000;
	392	 1	 134.1	 34.2	 0.0	 0.75	 0	    1.00000	    0.00000	 150.0	 8	    1.10000	    0.90000;
	395	 1	 -0.0	 -0.0	 0.0	 7.85	 0	    1.00000	    0.00000	 380.0	 8	    1.10000	    0.90000;
	401	 1	 56.5	 36.29	 0.0	 3.08	 0	    1.00000	    0.00000	 220.0	 5	    1.10000	    0.90000;
	408	 1	 129.1	 7.4	 0.0	 0.04	 0	    1.00000	    0.00000	 220.0	 5	    1.10000	    0.90000;
	410	 1	 170.89	 50.38	 0.0	 6.44	 0	    1.00000	    0.00000	 220.0	 5	    1.10000	    0.90000;
	413	 2	 0.0	 0.0	 0.0	 0.0	 0	    1.00000	    0.00000	 220.0	 5	    1.10000	    0.90000;
	415	 1	 4.71	 0.7	 0.0	 11.39	 0	    1.00000	    0.00000	 220.0	 4	    1.10000	    0.90000;
	416	 1	 70.68	 13.5	 0.0	 6.96	 0	    1.00000	    0.00000	 220.0	 5	    1.10000	    0.90000;
	420	 1	 0.0	 0.0	 0.0	 0.0	 0	    1.00000	    0.00000	 380.0	 8	    1.10000	    0.90000;
	425	 1	 -0.0	 0.0	 0.0	 2.72	 0	    1.00000	    0.00000	 380.0	 1	    1.10000	    0.90000;
	426	 1	 123.1	 6.5	 0.0	 3.25	 0	    1.00000	    0.00000	 220.0	 5	    1.10000	    0.90000;
	427	 1	 -0.0	 0.0	 0.0	 1.24	 0	    1.00000	    0.00000	 380.0	 1	    1.10000	    0.90000;
	429	 1	 26.93	 -22.4	 0.0	 4.95	 0	    1.00000	    0.00000	 220.0	 4	    1.10000	    0.90000;
	432	 1	 -0.0	 -0.0	 0.0	 68.517663	 0	    1.00000	    0.00000	 380.0	 5	    1.10000	    0.90000;
	440	 2	 0.0	 0.0	 0.0	 0.0	 0	    1.00000	    0.00000	 220.0	 4	    1.10000	    0.90000;
	441	 1	 -0.0	 0.0	 0.199768	 27.888516	 0	    1.00000	    0.00000	 380.0	 10	    1.10000	    0.90000;
	442	 2	 0.0	 0.0	 0.0	 0.0	 0	    1.00000	    0.00000	 220.0	 4	    1.10000	    0.90000;
	444	 1	 0.0	 -0.0	 0.0	 2.45	 0	    1.00000	    0.00000	 220.0	 5	    1.10000	    0.90000;
	445	 1	 36.74	 10.3	 0.0	 8.1	 0	    1.00000	    0.00000	 220.0	 4	    1.10000	    0.90000;
	449	 1	 0.0	 0.0	 0.0	 29.42	 0	    1.00000	    0.00000	 380.0	 5	    1.10000	    0.90000;
	453	 2	 0.0	 0.0	 0.0	 0.0	 0	    1.00000	    0.00000	 380.0	 5	    1.10000	    0.90000;
	455	 1	 274.32	 5.66	 0.0	 13.24	 0	    1.00000	    0.00000	 220.0	 5	    1.10000	    0.90000;
	472	 1	 336.2	 131.6	 0.0	 64.01	 0	    1.00000	    0.00000	 150.0	 8	    1.10000	    0.90000;
	473	 1	 -22.95	 -3.72	 0.0	 14.34	 0	    1.00000	    0.00000	 220.0	 4	    1.10000	    0.90000;
	477	 1	 0.0	 0.0	 0.0	 70.37	 0	    1.00000	    0.00000	 380.0	 4	    1.10000	    0.90000;
	481	 1	 -0.0	 0.0	 0.0	 17.44	 0	    1.00000	    0.00000	 220.0	 4	    1.10000	    0.90000;
	483	 1	 57.26	 15.6	 0.0	 3.43	 0	    1.00000	    0.00000	 220.0	 4	    1.10000	    0.90000;
	486	 1	 7.01	 2.0	 0.0	 0.44	 0	    1.00000	    0.00000	 150.0	 8	    1.10000	    0.90000;
	489	 2	 0.0	 0.0	 0.0	 0.0	 0	    1.00000	    0.00000	 220.0	 4	    1.10000	    0.90000;
	490	 1	 20.52	 4.0	 0.0	 2.77	 0	    1.00000	    0.00000	 220.0	 5	    1.10000	    0.90000;
	496	 1	 -0.0	 -0.0	 0.0	 10.04	 0	    1.00000	    0.00000	 150.0	 8	    1.10000	    0.90000;
	500	 1	 144.4	 35.5	 0.0	 7.66	 0	    1.00000	    0.00000	 220.0	 5	    1.10000	    0.90000;
	502	 1	 -0.0	 0.0	 0.0	 1.96	 0	    1.00000	    0.00000	 220.0	 5	    1.10000	    0.90000;
	506	 1	 -0.0	 0.0	 0.0	 0.4	 0	    1.00000	    0.00000	 380.0	 5	    1.10000	    0.90000;
	509	 1	 77.29	 7.0	 0.0	 17.6	 0	    1.00000	    0.00000	 220.0	 4	    1.10000	    0.90000;
	513	 1	 57.46	 17.1	 0.0	 1.61	 0	    1.00000	    0.00000	 220.0	 5	    1.10000	    0.90000;
	516	 2	 0.0	 0.0	 0.0	 0.0	 0	    1.00000	    0.00000	 220.0	 5	    1.10000	    0.90000;
	519	 1	 207.2	 9.4	 0.0	 8.77	 0	    1.00000	    0.00000	 220.0	 4	    1.10000	    0.90000;
	520	 1	 118.5	 20.4	 0.0	 2.57	 0	    1.00000	    0.00000	 220.0	 5	    1.10000	    0.90000;
	523	 1	 189.9	 74.7	 0.0	 26.2	 0	    1.00000	    0.00000	 150.0	 8	    1.10000	    0.90000;
	527	 1	 277.7	 45.4	 0.0	 0.7	 0	    1.00000	    0.00000	 220.0	 4	    1.10000	    0.90000;
	536	 1	 87.8	 -1.4	 0.079073	 36.047349	 0	    1.00000	    0.00000	 380.0	 10	    1.10000	    0.90000;
	539	 1	 57.96	 18.9	 0.0	 14.91	 0	    1.00000	    0.00000	 150.0	 8	    1.10000	    0.90000;
	544	 1	 79.69	 39.6	 0.0	 18.83	 0	    1.00000	    0.00000	 380.0	 10	    1.10000	    0.90000;
	548	 1	 30.93	 8.9	 0.0	 0.45	 0	    1.00000	    0.00000	 110.0	 8	    1.10000	    0.90000;
	549	 1	 0.0	 -0.0	 0.0	 5.15	 0	    1.00000	    0.00000	 220.0	 5	    1.10000	    0.90000;
	550	 1	 0.0	 -0.0	 0.0	 10.0	 0	    1.00000	    0.00000	 220.0	 4	    1.10000	    0.90000;
	552	 1	 180.8	 90.8	 0.0	 2.42	 0	    1.00000	    0.00000	 150.0	 10	    1.10000	    0.90000;
	554	 1	 0.0	 -0.0	 0.0	 1.97	 0	    1.00000	    0.00000	 220.0	 5	    1.10000	    0.90000;
	556	 1	 16.52	 9.0	 0.0	 1.17	 0	    1.00000	    0.00000	 220.0	 5	    1.10000	    0.90000;
	558	 1	 -0.18	 -3.57	 0.0	 0.0	 0	    1.00000	    0.00000	 150.0	 8	    1.10000	    0.90000;
	559	 1	 42.25	 16.6	 0.0	 0.0	 0	    1.00000	    0.00000	 150.0	 8	    1.10000	    0.90000;
	561	 1	 0.0	 -0.0	 0.0	 0.32	 0	    1.00000	    0.00000	 220.0	 5	    1.10000	    0.90000;
	564	 2	 0.0	 0.0	 0.0	 0.0	 0	    1.00000	    0.00000	 220.0	 5	    1.10000	    0.90000;
	575	 1	 0.0	 -0.0	 0.0	 0.67	 0	    1.00000	    0.00000	 220.0	 5	    1.10000	    0.90000;
	577	 1	 -0.13	 -1.0	 0.0	 0.0	 0	    1.00000	    0.00000	 220.0	 8	    1.10000	    0.90000;
	579	 1	 17.32	 6.6	 0.0	 16.52	 0	    1.00000	    0.00000	 380.0	 4	    1.10000	    0.90000;
	583	 2	 0.0	 0.0	 0.0	 0.0	 0	    1.00000	    0.00000	 220.0	 5	    1.10000	    0.90000;
	585	 1	 21.12	 8.3	 0.0	 4.26	 0	    1.00000	    0.00000	 150.0	 8	    1.10000	    0.90000;
	593	 1	 -0.0	 0.0	 0.0	 29.2	 0	    1.00000	    0.00000	 380.0	 8	    1.10000	    0.90000;
	594	 1	 67.57	 17.0	 0.0	 5.75	 0	    1.00000	    0.00000	 220.0	 5	    1.10000	    0.90000;
	595	 1	 47.55	 5.3	 0.0	 7.59	 0	    1.00000	    0.00000	 220.0	 4	    1.10000	    0.90000;
	597	 1	 33.34	 15.7	 0.0	 64.15	 0	    1.00000	    0.00000	 380.0	 4	    1.10000	    0.90000;
	601	 1	 140.6	 42.6	 0.0	 5.71	 0	    1.00000	    0.00000	 220.0	 5	    1.10000	    0.90000;
	602	 1	 110.8	 -8.8	 0.0	 3.15	 0	    1.00000	    0.00000	 220.0	 4	    1.10000	    0.90000;
	604	 1	 33.24	 4.4	 0.0	 24.54	 0	    1.00000	    0.00000	 380.0	 5	    1.10000	    0.90000;
	608	 1	 150.9	 10.4	 0.0	 4.77	 0	    1.00000	    0.00000	 220.0	 5	    1.10000	    0.90000;
	609	 1	 -0.0	 -0.0	 0.0	 5.67	 0	    1.00000	    0.00000	 220.0	 5	    1.10000	    0.90000;
	610	 1	 -0.0	 0.0	 0.0	 0.91	 0	    1.00000	    0.00000	 150.0	 10	    1.10000	    0.90000;
	615	 2	 0.0	 0.0	 0.0	 0.0	 0	    1.00000	    0.00000	 220.0	 5	    1.10000	    0.90000;
	616	 2	 0.0	 0.0	 0.0	 0.0	 0	    1.00000	    0.00000	 220.0	 5	    1.10000	    0.90000;
	618	 2	 0.0	 0.0	 0.0	 0.0	 0	    1.00000	    0.00000	 380.0	 4	    1.10000	    0.90000;
	619	 1	 72.88	 14.4	 0.0	 2.96	 0	    1.00000	    0.00000	 220.0	 5	    1.10000	    0.90000;
	621	 1	 21.42	 8.1	 0.0	 7.38	 0	    1.00000	    0.00000	 220.0	 4	    1.10000	    0.90000;
	628	 2	 0.0	 0.0	 0.0	 0.0	 0	    1.00000	    0.00000	 220.0	 10	    1.10000	    0.90000;
	639	 2	 0.0	 0.0	 0.0	 0.0	 0	    1.00000	    0.00000	 220.0	 5	    1.10000	    0.90000;
	641	 1	 45.32	 18.5	 0.0	 0.74	 0	    1.00000	    0.00000	 220.0	 5	    1.10000	    0.90000;
	642	 2	 0.0	 0.0	 0.0	 0.0	 0	    1.00000	    0.00000	 380.0	 4	    1.10000	    0.90000;
	643	 1	 15.52	 6.3	 0.0	 0.6	 0	    1.00000	    0.00000	 150.0	 8	    1.10000	    0.90000;
	649	 1	 40.94	 19.2	 0.0	 5.2	 0	    1.00000	    0.00000	 220.0	 4	    1.10000	    0.90000;
	650	 1	 17.22	 4.4	 0.0	 1.71	 0	    1.00000	    0.00000	 110.0	 8	    1.10000	    0.90000;
	656	 1	 -0.15	 -1.93	 0.0	 0.0	 0	    1.00000	    0.00000	 220.0	 8	    1.10000	    0.90000;
	658	 1	 258.4	 66.7	 0.0	 5.87	 0	    1.00000	    0.00000	 220.0	 5	    1.10000	    0.90000;
	659	 1	 -0.0	 -0.0	 0.174507	 73.977052	 0	    1.00000	    0.00000	 380.0	 2	    1.10000	    0.90000;
...
];

%% generator data
%	bus	Pg	Qg	Qmax	Qmin	Vg	mBase	status	Pmax	Pmin
mpc.gen = [
	32	 8.1	 0.675	 5.91	 -4.56	 1.0	 100.0	 1	 16.2	 0.0; % COW
	33	 2.69	 0.595	 2.27	 -1.08	 1.0	 100.0	 1	 5.38	 0.0; % NG
	39	 20.0	 5.31	 17.76	 -7.14	 1.0	 100.0	 1	 40.0	 0.0; % NG
	51	 -46.335	 0.645	 5.48	 -4.19	 1.0	 100.0	 1	 100.0	 -192.67; % NG
	124	 666.665	 133.865	 440.32	 -172.59	 1.0	 100.0	 1	 1000.0	 333.33; % NUC
	150	 80.0	 27.275	 77.09	 -22.54	 1.0	 100.0	 1	 160.0	 0.0; % NG
	179	 -69.465	 0.46	 52.64	 -51.72	 1.0	 100.0	 1	 100.0	 -238.93; % PEL
	194	 200.0	 38.33	 130.19	 -53.53	 1.0	 100.0	 1	 300.0	 100.0; % COW
	201	 2.685	 0.6	 2.27	 -1.07	 1.0	 100.0	 1	 5.37	 0.0; % NG
	221	 -53.59	 59.31	 183.92	 -65.3	 1.0	 100.0	 1	 100.0	 -207.18; % NG
	299	 1066.665	 231.27	 721.25	 -258.71	 1.0	 100.0	 1	 1600.0	 533.33; % COW
	338	 60.0	 18.19	 55.54	 -19.16	 1.0	 100.0	 1	 120.0	 0.0; % COW
	352	 1333.335	 314.335	 926.35	 -297.68	 1.0	 100.0	 1	 2000.0	 666.67; % COW
	389	 60.0	 19.445	 56.73	 -17.84	 1.0	 100.0	 1	 120.0	 0.0; % NG
	413	 140.0	 37.14	 124.12	 -49.84	 1.0	 100.0	 1	 280.0	 0.0; % NG
	440	 60.0	 18.36	 55.73	 -19.01	 1.0	 100.0	 1	 120.0	 0.0; % NG
	442	 23.1	 0.51	 1.95	 -0.93	 1.0	 100.0	 1	 100.0	 -53.8; % NG
	453	 270.0	 91.415	 257.23	 -74.4	 1.0	 100.0	 1	 540.0	 0.0; % COW
	489	 -21.6	 0.73	 6.28	 -4.82	 1.0	 100.0	 1	 100.0	 -143.2; % NG
	516	 400.0	 77.56	 261.79	 -106.67	 1.0	 100.0	 1	 600.0	 200.0; % COW
	564	 15.555	 -0.44	 18.47	 -19.35	 1.0	 100.0	 1	 100.0	 -68.89; % NG
	583	 -130.0	 5.425	 17.88	 -7.03	 1.0	 100.0	 1	 100.0	 -360.0; % NG
	615	 20.0	 4.65	 17.09	 -7.79	 1.0	 100.0	 1	 40.0	 0.0; % NG
	616	 320.0	 68.37	 217.9	 -81.16	 1.0	 100.0	 1	 480.0	 160.0; % COW
	618	 533.335	 106.035	 351.18	 -139.11	 1.0	 100.0	 1	 800.0	 266.67; % COW
	628	 90.0	 23.55	 78.79	 -31.69	 1.0	 100.0	 1	 180.0	 0.0; % NG
	639	 19.2	 48.31	 135.52	 -38.9	 1.0	 100.0	 1	 100.0	 -61.6; % NG
	642	 138.045	 -1.45	 90.13	 -93.03	 1.0	 100.0	 1	 276.09	 0.0; % COW
	682	 40.0	 13.855	 38.77	 -11.06	 1.0	 100.0	 1	 80.0	 0.0; % NG
	686	 35.57	 0.245	 34.75	 -34.26	 1.0	 100.0	 1	 100.0	 -28.86; % NG
	698	 200.0	 38.015	 129.94	 -53.91	 1.0	 100.0	 1	 300.0	 100.0; % NG
	709	 32.65	 0.7	 22.23	 -20.83	 1.0	 100.0	 1	 65.3	 0.0; % COW
	739	 333.335	 59.76	 212.97	 -93.45	 1.0	 100.0	 1	 500.0	 166.67; % NG
	749	 120.0	 30.925	 105.69	 -43.84	 1.0	 100.0	 1	 240.0	 0.0; % NG
	751	 150.0	 44.85	 136.94	 -47.24	 1.0	 100.0	 1	 300.0	 0.0; % NG
	757	 60.0	 13.945	 51.3	 -23.41	 1.0	 100.0	 1	 120.0	 0.0; % NG
	776	 -24.265	 5.715	 18.16	 -6.73	 1.0	 100.0	 1	 100.0	 -148.53; % NG
	778	 16.79	 1.505	 12.37	 -9.36	 1.0	 100.0	 1	 33.58	 0.0; % NG
	780	 40.0	 12.555	 37.43	 -12.32	 1.0	 100.0	 1	 80.0	 0.0; % NG
	795	 40.0	 11.855	 36.75	 -13.04	 1.0	 100.0	 1	 80.0	 0.0; % NG
	803	 -9.465	 24.245	 74.03	 -25.54	 1.0	 100.0	 1	 100.0	 -118.93; % NG
	807	 1333.335	 251.75	 864.47	 -360.97	 1.0	 100.0	 1	 2000.0	 666.67; % NG
	823	 1333.335	 314.185	 926.68	 -298.31	 1.0	 100.0	 1	 2000.0	 666.67; % COW
	849	 8.785	 0.77	 6.45	 -4.91	 1.0	 100.0	 1	 17.57	 0.0; % PEL
	851	 100.0	 34.415	 96.64	 -27.81	 1.0	 100.0	 1	 200.0	 0.0; % NG
	858	 666.665	 134.26	 440.67	 -172.15	 1.0	 100.0	 1	 1000.0	 333.33; % NUC
	891	 1600.0	 361.75	 1097.41	 -373.91	 1.0	 100.0	 1	 2400.0	 800.0; % NUC
	913	 1133.335	 251.085	 772.11	 -269.94	 1.0	 100.0	 1	 1700.0	 566.67; % COW
	916	 150.0	 42.345	 134.45	 -49.76	 1.0	 100.0	 1	 300.0	 0.0; % NG
	930	 600.0	 130.955	 406.66	 -144.75	 1.0	 100.0	 1	 900.0	 300.0; % COW
	972	 1333.335	 321.605	 934.73	 -291.52	 1.0	 100.0	 1	 2000.0	 666.67; % COW
	976	 53.915	 0.335	 36.02	 -35.35	 1.0	 100.0	 1	 107.83	 0.0; % COW
	1001	 60.0	 17.605	 55.02	 -19.81	 1.0	 100.0	 1	 120.0	 0.0; % COW
	1002	 100.0	 27.2	 89.55	 -35.15	 1.0	 100.0	 1	 200.0	 0.0; % NG
	1021	 -69.535	 21.055	 58.34	 -16.23	 1.0	 100.0	 1	 100.0	 -239.07; % NG
	1030	 250.0	 21.885	 71.66	 -27.89	 1.0	 100.0	 1	 400.0	 100.0; % NG
	1036	 200.0	 45.47	 137.39	 -46.45	 1.0	 100.0	 1	 300.0	 100.0; % NG
	1043	 600.0	 112.24	 387.88	 -163.4	 1.0	 100.0	 1	 900.0	 300.0; % COW
	1083	 60.0	 17.515	 54.91	 -19.88	 1.0	 100.0	 1	 120.0	 0.0; % NG
	1093	 800.0	 182.77	 550.69	 -185.15	 1.0	 100.0	 1	 1200.0	 400.0; % COW
	1100	 40.0	 11.895	 36.8	 -13.01	 1.0	 100.0	 1	 80.0	 0.0; % NG
	1102	 -32.77	 13.23	 38.05	 -11.59	 1.0	 100.0	 1	 100.0	 -165.54; % COW
	1121	 180.0	 47.695	 158.2	 -62.81	 1.0	 100.0	 1	 360.0	 0.0; % NG
	1173	 -33.135	 0.485	 1.85	 -0.88	 1.0	 100.0	 1	 100.0	 -166.27; % NG
	1174	 20.0	 6.165	 18.61	 -6.28	 1.0	 100.0	 1	 40.0	 0.0; % COW
	1175	 450.0	 34.615	 108.35	 -39.12	 1.0	 100.0	 1	 700.0	 200.0; % COW
	1237	 1333.335	 293.585	 906.61	 -319.44	 1.0	 100.0	 1	 2000.0	 666.67; % COW
	1241	 32.815	 0.655	 22.29	 -20.98	 1.0	 100.0	 1	 65.63	 0.0; % PEL
	1251	 800.0	 182.77	 550.69	 -185.15	 1.0	 100.0	 1	 1200.0	 400.0; % NUC
	1271	 -17.0	 0.215	 32.54	 -32.11	 1.0	 100.0	 1	 100.0	 -134.0; % COW
	1295	 -32.735	 12.02	 36.92	 -12.88	 1.0	 100.0	 1	 100.0	 -165.47; % COW
	1341	 60.0	 19.705	 57.03	 -17.62	 1.0	 100.0	 1	 120.0	 0.0; % PEL
	1354	 -114.335	 13.175	 38.08	 -11.73	 1.0	 100.0	 1	 100.0	 -328.67; % COW
	1391	 20.0	 6.285	 18.74	 -6.17	 1.0	 100.0	 1	 40.0	 0.0; % NG
	1399	 -66.4	 0.72	 11.64	 -10.2	 1.0	 100.0	 1	 100.0	 -232.8; % NG
	1409	 533.335	 93.45	 338.66	 -151.76	 1.0	 100.0	 1	 800.0	 266.67; % COW
	1422	 -17.335	 5.65	 18.09	 -6.79	 1.0	 100.0	 1	 100.0	 -134.67; % COW
	1436	 40.0	 12.815	 37.72	 -12.09	 1.0	 100.0	 1	 80.0	 0.0; % NG
	1458	 1333.335	 282.225	 895.23	 -330.78	 1.0	 100.0	 1	 2000.0	 666.67; % COW
	1475	 600.0	 118.725	 394.45	 -157.0	 1.0	 100.0	 1	 900.0	 300.0; % COW
	1478	 40.0	 11.48	 36.4	 -13.44	 1.0	 100.0	 1	 80.0	 0.0; % NG
	1498	 2.655	 0.595	 2.25	 -1.06	 1.0	 100.0	 1	 5.31	 0.0; % PEL
	1570	 133.335	 31.835	 93.16	 -29.49	 1.0	 100.0	 1	 200.0	 66.67; % NG
	1604	 40.0	 12.745	 37.66	 -12.17	 1.0	 100.0	 1	 80.0	 0.0; % NG
	1618	 -41.065	 0.6	 21.27	 -20.07	 1.0	 100.0	 1	 100.0	 -182.13; % NG
	1642	 40.0	 12.815	 37.74	 -12.11	 1.0	 100.0	 1	 80.0	 0.0; % NG
	1680	 1333.335	 316.395	 928.89	 -296.1	 1.0	 100.0	 1	 2000.0	 666.67; % COW
	1685	 60.0	 20.095	 57.41	 -17.22	 1.0	 100.0	 1	 120.0	 0.0; % NG
	1697	 -76.0	 0.35	 31.94	 -31.24	 1.0	 100.0	 1	 100.0	 -252.0; % NG
	1708	 666.665	 133.035	 439.37	 -173.3	 1.0	 100.0	 1	 1000.0	 333.33; % NUC
	1721	 20.0	 6.065	 18.52	 -6.39	 1.0	 100.0	 1	 40.0	 0.0; % NG
	1747	 600.0	 111.97	 387.67	 -163.73	 1.0	 100.0	 1	 900.0	 300.0; % COW
	1754	 20.53	 4.535	 16.99	 -7.92	 1.0	 100.0	 1	 41.06	 0.0; % NG
	1788	 400.0	 88.665	 272.25	 -94.92	 1.0	 100.0	 1	 600.0	 200.0; % COW
	1793	 -10.2	 9.72	 34.64	 -15.2	 1.0	 100.0	 1	 100.0	 -120.4; % NG
	1794	 1333.335	 314.335	 926.35	 -297.68	 1.0	 100.0	 1	 2000.0	 666.67; % COW
	1808	 49.6	 36.535	 111.23	 -38.16	 1.0	 100.0	 1	 100.0	 -0.8; % NG
	1850	 16.485	 0.715	 11.52	 -10.09	 1.0	 100.0	 1	 32.97	 0.0; % NG
	1851	 15.96	 1.435	 11.76	 -8.89	 1.0	 100.0	 1	 31.92	 0.0; % PEL
	1852	 -111.2	 20.82	 58.16	 -16.52	 1.0	 100.0	 1	 100.0	 -322.4; % COW
	1888	 612.78	 120.095	 396.02	 -155.83	 1.0	 100.0	 1	 912.78	 312.78; % COW
	1890	 1066.665	 196.055	 686.73	 -294.62	 1.0	 100.0	 1	 1600.0	 533.33; % COW
	1898	 150.0	 40.93	 133.11	 -51.25	 1.0	 100.0	 1	 300.0	 0.0; % NG
	1909	 29.215	 13.785	 38.67	 -11.1	 1.0	 100.0	 1	 100.0	 -41.57; % NG
	1914	 255.755	 4.705	 160.36	 -150.95	 1.0	 100.0	 1	 472.16	 39.35; % COW
	1947	 38.65	 0.54	 2.05	 -0.97	 1.0	 100.0	 1	 100.0	 -22.7; % COW
	1959	 20.0	 5.695	 18.14	 -6.75	 1.0	 100.0	 1	 40.0	 0.0; % NG
	1999	 90.0	 25.22	 80.51	 -30.07	 1.0	 100.0	 1	 180.0	 0.0; % COW
	2030	 400.0	 73.075	 257.0	 -110.85	 1.0	 100.0	 1	 600.0	 200.0; % COW
	2035	 666.665	 135.29	 441.85	 -171.27	 1.0	 100.0	 1	 1000.0	 333.33; % COW
	2050	 1333.335	 349.275	 962.2	 -263.65	 1.0	 100.0	 1	 2000.0	 666.67; % COW
	2085	 100.0	 26.1	 88.39	 -36.19	 1.0	 100.0	 1	 200.0	 0.0; % NG
	2091	 20.0	 5.42	 17.88	 -7.04	 1.0	 100.0	 1	 40.0	 0.0; % NG
	2096	 800.0	 155.185	 522.74	 -212.37	 1.0	 100.0	 1	 1200.0	 400.0; % COW
	2107	 1000.0	 202.14	 661.9	 -257.62	 1.0	 100.0	 1	 1500.0	 500.0; % COW
	2150	 400.0	 82.335	 266.17	 -101.5	 1.0	 100.0	 1	 600.0	 200.0; % NG
	2177	 -30.865	 21.045	 58.35	 -16.26	 1.0	 100.0	 1	 100.0	 -161.73; % NG
	2193	 8.06	 2.455	 7.47	 -2.56	 1.0	 100.0	 1	 16.12	 0.0; % NG
	2197	 14.475	 2.385	 19.51	 -14.74	 1.0	 100.0	 1	 100.0	 -71.05; % NG
	2206	 200.0	 45.355	 137.29	 -46.58	 1.0	 100.0	 1	 300.0	 100.0; % COW
	2225	 -5.665	 0.615	 2.27	 -1.04	 1.0	 100.0	 1	 100.0	 -111.33; % NG
	2236	 24.37	 0.58	 2.23	 -1.07	 1.0	 100.0	 1	 100.0	 -51.26; % COW
	2267	 333.335	 74.665	 228.16	 -78.83	 1.0	 100.0	 1	 500.0	 166.67; % COW
	2276	 59.65	 2.585	 41.67	 -36.5	 1.0	 100.0	 1	 119.3	 0.0; % NG
	2291	 100.0	 33.38	 95.69	 -28.93	 1.0	 100.0	 1	 200.0	 0.0; % NG
	2335	 400.0	 89.695	 273.49	 -94.1	 1.0	 100.0	 1	 600.0	 200.0; % COW
	2359	 40.0	 9.425	 34.35	 -15.5	 1.0	 100.0	 1	 80.0	 0.0; % NG
	2412	 204.545	 -0.875	 134.54	 -136.29	 1.0	 100.0	 1	 409.09	 0.0; % NG
	2421	 -163.6	 12.47	 37.39	 -12.45	 1.0	 100.0	 1	 100.0	 -427.2; % NG
	2425	 -17.0	 16.905	 54.3	 -20.49	 1.0	 100.0	 1	 100.0	 -134.0; % NG
	2426	 21.2	 3.16	 105.34	 -99.02	 1.0	 100.0	 1	 100.0	 -57.6; % NG
	2446	 1333.335	 308.445	 921.62	 -304.73	 1.0	 100.0	 1	 2000.0	 666.67; % COW
	2460	 40.0	 13.135	 38.01	 -11.74	 1.0	 100.0	 1	 80.0	 0.0; % NG
	2468	 40.0	 13.105	 38.02	 -11.81	 1.0	 100.0	 1	 80.0	 0.0; % NG
	2481	 40.0	 14.205	 39.12	 -10.71	 1.0	 100.0	 1	 80.0	 0.0; % NG
	2489	 180.0	 50.305	 162.4	 -61.79	 1.0	 100.0	 1	 360.0	 0.0; % NG
	2517	 117.26	 0.53	 78.13	 -77.07	 1.0	 100.0	 1	 234.52	 0.0; % NG
	2550	 60.0	 20.87	 58.23	 -16.49	 1.0	 100.0	 1	 120.0	 0.0; % COW
	2572	 400.0	 92.28	 276.19	 -91.63	 1.0	 100.0	 1	 600.0	 200.0; % COW
	2600	 80.0	 26.245	 76.08	 -23.59	 1.0	 100.0	 1	 160.0	 0.0; % NG
	2627	 1333.335	 308.365	 921.52	 -304.79	 1.0	 100.0	 1	 2000.0	 666.67; % NUC
	2642	 1333.335	 235.545	 848.76	 -377.67	 1.0	 100.0	 1	 2000.0	 666.67; % COW
	2653	 60.0	 14.57	 51.94	 -22.8	 1.0	 100.0	 1	 120.0	 0.0; % NG
	2658	 450.0	 32.645	 124.68	 -59.39	 1.0	 100.0	 1	 700.0	 200.0; % COW
	2660	 90.0	 24.46	 79.69	 -30.77	 1.0	 100.0	 1	 180.0	 0.0; % NG
	2686	 1.4	 -0.445	 69.01	 -69.9	 1.0	 100.0	 1	 100.0	 -97.2; % NG
	2719	 98.36	 6.025	 70.15	 -58.1	 1.0	 100.0	 1	 196.72	 0.0; % NG
	2764	 600.0	 141.1	 416.7	 -134.5	 1.0	 100.0	 1	 900.0	 300.0; % COW
	2786	 1333.335	 321.67	 934.81	 -291.47	 1.0	 100.0	 1	 2000.0	 666.67; % COW
	2797	 -13.4	 26.0	 88.33	 -36.33	 1.0	 100.0	 1	 100.0	 -126.8; % COW
	2799	 80.0	 28.125	 77.91	 -21.66	 1.0	 100.0	 1	 160.0	 0.0; % NG
	2800	 800.0	 157.75	 525.34	 -209.84	 1.0	 100.0	 1	 1200.0	 400.0; % COW
	2816	 1333.335	 314.26	 926.26	 -297.74	 1.0	 100.0	 1	 2000.0	 666.67; % COW
	2817	 40.0	 9.93	 34.8	 -14.94	 1.0	 100.0	 1	 80.0	 0.0; % NG
	2841	 60.0	 18.61	 55.98	 -18.76	 1.0	 100.0	 1	 120.0	 0.0; % NG
	2842	 20.0	 5.725	 18.19	 -6.74	 1.0	 100.0	 1	 40.0	 0.0; % NG
	2853	 80.0	 22.275	 72.02	 -27.47	 1.0	 100.0	 1	 160.0	 0.0; % COW
	2872	 4.525	 0.385	 3.31	 -2.54	 1.0	 100.0	 1	 9.05	 0.0; % PEL
	2878	 107.43	 2.12	 72.95	 -68.71	 1.0	 100.0	 1	 214.86	 0.0; % NG
	2886	 60.0	 20.335	 57.69	 -17.02	 1.0	 100.0	 1	 120.0	 0.0; % PEL
	2896	 -98.935	 0.395	 1.52	 -0.73	 1.0	 100.0	 1	 100.0	 -297.87; % COW
	2902	 20.0	 6.735	 19.19	 -5.72	 1.0	 100.0	 1	 40.0	 0.0; % NG
	2930	 40.0	 12.35	 37.24	 -12.54	 1.0	 100.0	 1	 80.0	 0.0; % NG
	2934	 3.415	 0.3	 2.51	 -1.91	 1.0	 100.0	 1	 6.83	 0.0; % NG
	2946	 -98.065	 0.48	 1.83	 -0.87	 1.0	 100.0	 1	 100.0	 -296.13; % NG
	2985	 246.675	 25.895	 184.46	 -132.67	 1.0	 100.0	 1	 493.35	 0.0; % COW
	3018	 100.0	 27.395	 89.61	 -34.82	 1.0	 100.0	 1	 200.0	 0.0; % NG
	3028	 666.665	 135.29	 441.85	 -171.27	 1.0	 100.0	 1	 1000.0	 333.33; % COW
	3054	 266.665	 45.305	 167.72	 -77.11	 1.0	 100.0	 1	 400.0	 133.33; % NG
	3113	 36.465	 0.7	 22.39	 -20.99	 1.0	 100.0	 1	 100.0	 -27.07; % NG
	3114	 20.0	 4.86	 17.33	 -7.61	 1.0	 100.0	 1	 40.0	 0.0; % PEL
	3133	 120.0	 39.205	 113.97	 -35.56	 1.0	 100.0	 1	 240.0	 0.0; % NG
	3134	 -40.865	 20.46	 70.25	 -29.33	 1.0	 100.0	 1	 100.0	 -181.73; % NG
	3150	 29.105	 0.78	 6.66	 -5.1	 1.0	 100.0	 1	 100.0	 -41.79; % COW
	3157	 9.205	 0.825	 6.78	 -5.13	 1.0	 100.0	 1	 18.41	 0.0; % NG
	3163	 103.43	 -0.55	 67.92	 -69.02	 1.0	 100.0	 1	 206.86	 0.0; % NG
	3183	 60.0	 16.36	 53.7	 -20.98	 1.0	 100.0	 1	 120.0	 0.0; % NG
	3205	 270.0	 77.575	 243.61	 -88.46	 1.0	 100.0	 1	 540.0	 0.0; % NG
	3218	 -21.6	 11.895	 36.79	 -13.0	 1.0	 100.0	 1	 100.0	 -143.2; % COW
	3233	 210.0	 49.68	 178.47	 -79.11	 1.0	 100.0	 1	 420.0	 0.0; % NG
	3240	 21.8	 5.43	 62.23	 -51.37	 1.0	 100.0	 1	 100.0	 -56.4; % NG
	3291	 333.335	 75.99	 229.0	 -77.02	 1.0	 100.0	 1	 500.0	 166.67; % NG
	3306	 666.665	 132.885	 439.2	 -173.43	 1.0	 100.0	 1	 1000.0	 333.33; % COW
	3324	 32.35	 13.245	 38.13	 -11.64	 1.0	 100.0	 1	 100.0	 -35.3; % NG
	3334	 19.665	 9.535	 34.41	 -15.34	 1.0	 100.0	 1	 100.0	 -60.67; % NG
	3335	 0.0	 0.0	 99999.0	 -99999.0	 1.0	 100.0	 1	 630.0	 -630.0; % COW
	3346	 40.0	 12.17	 37.1	 -12.76	 1.0	 100.0	 1	 80.0	 0.0; % COW
	3353	 40.0	 13.295	 38.2	 -11.61	 1.0	 100.0	 1	 80.0	 0.0; % NG
	3364	 67.635	 2.875	 47.19	 -41.44	 1.0	 100.0	 1	 135.27	 0.0; % NG
	3390	 60.0	 17.2	 54.59	 -20.19	 1.0	 100.0	 1	 120.0	 0.0; % COW
	3416	 90.0	 21.155	 76.43	 -34.12	 1.0	 100.0	 1	 180.0	 0.0; % NG
	3422	 60.0	 20.845	 58.19	 -16.5	 1.0	 100.0	 1	 120.0	 0.0; % NG
	3436	 800.0	 183.04	 550.97	 -184.89	 1.0	 100.0	 1	 1200.0	 400.0; % COW
	3492	 -197.2	 16.335	 53.75	 -21.08	 1.0	 100.0	 1	 100.0	 -494.4; % NG
	3513	 600.0	 112.24	 387.88	 -163.4	 1.0	 100.0	 1	 900.0	 300.0; % COW
	3565	 40.0	 13.93	 38.83	 -10.97	 1.0	 100.0	 1	 80.0	 0.0; % COW
	3580	 300.0	 77.17	 261.7	 -107.36	 1.0	 100.0	 1	 600.0	 0.0; % COW
	3582	 -164.535	 0.395	 52.83	 -52.04	 1.0	 100.0	 1	 100.0	 -429.07; % COW
	3584	 -8.935	 2.34	 19.8	 -15.12	 1.0	 100.0	 1	 100.0	 -117.87; % NG
	3585	 40.0	 12.555	 37.43	 -12.32	 1.0	 100.0	 1	 80.0	 0.0; % NG
...
];

%% generator cost data
%	2	startup	shutdown	n	c(n-1)	...	c0
mpc.gencost = [
2	0.0	0.0	3	0.2	31.541850	0.000000;	%	COW
2	0.0	0.0	3	0.2	34.788873	0.000000;	%	NG
2	0.0	0.0	3	0.2	45.259135	0.000000;	%	NG
2	0.0	0.0	3	0.2	29.222557	0.000000;	%	NG
2	0.0	0.0	3	0.2	6.831746	0.000000;	%	NUC
2	0.0	0.0	3	0.2	25.158881	0.000000;	%	NG
2	0.0	0.0	3	0.2	105.683605	0.000000;	%	PEL
2	0.0	0.0	3	0.2	20.731624	0.000000;	%	COW
2	0.0	0.0	3	0.2	22.098373	0.000000;	%	NG
2	0.0	0.0	3	0.2	27.353439	0.000000;	%	NG
2	0.0	0.0	3	0.2	13.318110	0.000000;	%	COW
2	0.0	0.0	3	0.2	7.918182	0.000000;	%	COW
2	0.0	0.0	3	0.2	37.155789	0.000000;	%	COW
2	0.0	0.0	3	0.2	28.145150	0.000000;	%	NG
2	0.0	0.0	3	0.2	36.581832	0.000000;	%	NG
2	0.0	0.0	3	0.2	27.078298	0.000000;	%	NG
2	0.0	0.0	3	0.2	15.164131	0.000000;	%	NG
2	0.0	0.0	3	0.2	15.398785	0.000000;	%	COW
2	0.0	0.0	3	0.2	16.315499	0.000000;	%	NG
2	0.0	0.0	3	0.2	33.195140	0.000000;	%	COW
2	0.0	0.0	3	0.2	38.524070	0.000000;	%	NG
2	0.0	0.0	3	0.2	21.923969	0.000000;	%	NG
2	0.0	0.0	3	0.2	27.942796	0.000000;	%	NG
2	0.0	0.0	3	0.2	31.475733	0.000000;	%	COW
2	0.0	0.0	3	0.2	17.179463	0.000000;	%	COW
2	0.0	0.0	3	0.2	36.911222	0.000000;	%	NG
2	0.0	0.0	3	0.2	42.661481	0.000000;	%	NG
2	0.0	0.0	3	0.2	31.681820	0.000000;	%	COW
2	0.0	0.0	3	0.2	56.690369	0.000000;	%	NG
2	0.0	0.0	3	0.2	18.564121	0.000000;	%	NG
2	0.0	0.0	3	0.2	56.862119	0.000000;	%	NG
2	0.0	0.0	3	0.2	27.565617	0.000000;	%	COW
2	0.0	0.0	3	0.2	44.265658	0.000000;	%	NG
2	0.0	0.0	3	0.2	23.325968	0.000000;	%	NG
2	0.0	0.0	3	0.2	14.016818	0.000000;	%	NG
2	0.0	0.0	3	0.2	36.596808	0.000000;	%	NG
2	0.0	0.0	3	0.2	30.251545	0.000000;	%	NG
2	0.0	0.0	3	0.2	62.738660	0.000000;	%	NG
2	0.0	0.0	3	0.2	39.860505	0.000000;	%	NG
2	0.0	0.0	3	0.2	33.156019	0.000000;	%	NG
2	0.0	0.0	3	0.2	35.367631	0.000000;	%	NG
2	0.0	0.0	3	0.2	31.285403	0.000000;	%	NG
2	0.0	0.0	3	0.2	23.055608	0.000000;	%	COW
2	0.0	0.0	3	0.2	115.760204	0.000000;	%	PEL
2	0.0	0.0	3	0.2	25.133068	0.000000;	%	NG
2	0.0	0.0	3	0.2	5.784258	0.000000;	%	NUC
2	0.0	0.0	3	0.2	7.557856	0.000000;	%	NUC
2	0.0	0.0	3	0.2	22.295268	0.000000;	%	COW
2	0.0	0.0	3	0.2	22.168853	0.000000;	%	NG
2	0.0	0.0	3	0.2	22.568495	0.000000;	%	COW
2	0.0	0.0	3	0.2	18.176607	0.000000;	%	COW
2	0.0	0.0	3	0.2	20.909096	0.000000;	%	COW
2	0.0	0.0	3	0.2	22.099784	0.000000;	%	COW
2	0.0	0.0	3	0.2	20.652520	0.000000;	%	NG
2	0.0	0.0	3	0.2	30.885807	0.000000;	%	NG
2	0.0	0.0	3	0.2	19.278757	0.000000;	%	NG
2	0.0	0.0	3	0.2	46.754235	0.000000;	%	NG
2	0.0	0.0	3	0.2	31.567138	0.000000;	%	COW
2	0.0	0.0	3	0.2	31.298140	0.000000;	%	NG
2	0.0	0.0	3	0.2	30.637713	0.000000;	%	COW
2	0.0	0.0	3	0.2	38.292757	0.000000;	%	NG
2	0.0	0.0	3	0.2	17.809839	0.000000;	%	COW
2	0.0	0.0	3	0.2	35.054880	0.000000;	%	NG
2	0.0	0.0	3	0.2	17.867485	0.000000;	%	NG
2	0.0	0.0	3	0.2	15.860848	0.000000;	%	COW
2	0.0	0.0	3	0.2	15.771301	0.000000;	%	COW
2	0.0	0.0	3	0.2	25.572045	0.000000;	%	COW
2	0.0	0.0	3	0.2	108.349398	0.000000;	%	PEL
2	0.0	0.0	3	0.2	7.313398	0.000000;	%	NUC
2	0.0	0.0	3	0.2	10.055947	0.000000;	%	COW
2	0.0	0.0	3	0.2	27.069051	0.000000;	%	COW
2	0.0	0.0	3	0.2	129.259362	0.000000;	%	PEL
2	0.0	0.0	3	0.2	13.896074	0.000000;	%	COW
2	0.0	0.0	3	0.2	46.444798	0.000000;	%	NG
2	0.0	0.0	3	0.2	35.368173	0.000000;	%	NG
2	0.0	0.0	3	0.2	8.858522	0.000000;	%	COW
2	0.0	0.0	3	0.2	11.312819	0.000000;	%	COW
2	0.0	0.0	3	0.2	28.704584	0.000000;	%	NG
2	0.0	0.0	3	0.2	27.939041	0.000000;	%	COW
2	0.0	0.0	3	0.2	32.301527	0.000000;	%	COW
2	0.0	0.0	3	0.2	29.727593	0.000000;	%	NG
2	0.0	0.0	3	0.2	97.851404	0.000000;	%	PEL
2	0.0	0.0	3	0.2	30.853594	0.000000;	%	NG
2	0.0	0.0	3	0.2	34.267518	0.000000;	%	NG
2	0.0	0.0	3	0.2	32.330172	0.000000;	%	NG
2	0.0	0.0	3	0.2	27.389860	0.000000;	%	NG
2	0.0	0.0	3	0.2	42.363807	0.000000;	%	COW
2	0.0	0.0	3	0.2	35.469484	0.000000;	%	NG
2	0.0	0.0	3	0.2	19.834657	0.000000;	%	NG
2	0.0	0.0	3	0.2	6.733122	0.000000;	%	NUC
2	0.0	0.0	3	0.2	37.980462	0.000000;	%	NG
2	0.0	0.0	3	0.2	35.052280	0.000000;	%	COW
2	0.0	0.0	3	0.2	27.236093	0.000000;	%	NG
2	0.0	0.0	3	0.2	21.731964	0.000000;	%	COW
2	0.0	0.0	3	0.2	37.519412	0.000000;	%	NG
2	0.0	0.0	3	0.2	17.770291	0.000000;	%	COW
2	0.0	0.0	3	0.2	19.803437	0.000000;	%	NG
2	0.0	0.0	3	0.2	21.721650	0.000000;	%	NG
2	0.0	0.0	3	0.2	117.609781	0.000000;	%	PEL
2	0.0	0.0	3	0.2	33.073148	0.000000;	%	COW
2	0.0	0.0	3	0.2	20.769285	0.000000;	%	COW
2	0.0	0.0	3	0.2	19.282484	0.000000;	%	COW
2	0.0	0.0	3	0.2	57.546543	0.000000;	%	NG
2	0.0	0.0	3	0.2	20.412877	0.000000;	%	NG
2	0.0	0.0	3	0.2	29.272721	0.000000;	%	COW
2	0.0	0.0	3	0.2	22.809671	0.000000;	%	COW
2	0.0	0.0	3	0.2	44.454440	0.000000;	%	NG
2	0.0	0.0	3	0.2	36.547352	0.000000;	%	COW
2	0.0	0.0	3	0.2	36.651844	0.000000;	%	COW
2	0.0	0.0	3	0.2	24.064945	0.000000;	%	COW
2	0.0	0.0	3	0.2	29.889236	0.000000;	%	COW
2	0.0	0.0	3	0.2	27.995576	0.000000;	%	NG
2	0.0	0.0	3	0.2	19.958470	0.000000;	%	NG
2	0.0	0.0	3	0.2	12.208096	0.000000;	%	COW
2	0.0	0.0	3	0.2	34.557393	0.000000;	%	COW
2	0.0	0.0	3	0.2	51.723795	0.000000;	%	NG
2	0.0	0.0	3	0.2	43.384640	0.000000;	%	NG
2	0.0	0.0	3	0.2	31.188814	0.000000;	%	NG
2	0.0	0.0	3	0.2	23.590276	0.000000;	%	NG
2	0.0	0.0	3	0.2	40.374446	0.000000;	%	COW
2	0.0	0.0	3	0.2	54.112308	0.000000;	%	NG
2	0.0	0.0	3	0.2	11.809591	0.000000;	%	COW
2	0.0	0.0	3	0.2	28.889109	0.000000;	%	COW
2	0.0	0.0	3	0.2	22.786739	0.000000;	%	NG
2	0.0	0.0	3	0.2	35.514751	0.000000;	%	NG
2	0.0	0.0	3	0.2	34.227207	0.000000;	%	COW
2	0.0	0.0	3	0.2	25.676397	0.000000;	%	NG
2	0.0	0.0	3	0.2	19.513954	0.000000;	%	NG
2	0.0	0.0	3	0.2	18.282341	0.000000;	%	NG
2	0.0	0.0	3	0.2	40.243993	0.000000;	%	NG
2	0.0	0.0	3	0.2	33.757817	0.000000;	%	NG
2	0.0	0.0	3	0.2	20.302912	0.000000;	%	COW
2	0.0	0.0	3	0.2	24.969144	0.000000;	%	NG
2	0.0	0.0	3	0.2	14.333446	0.000000;	%	NG
2	0.0	0.0	3	0.2	21.622306	0.000000;	%	NG
2	0.0	0.0	3	0.2	25.097854	0.000000;	%	NG
2	0.0	0.0	3	0.2	28.287736	0.000000;	%	NG
2	0.0	0.0	3	0.2	31.094528	0.000000;	%	COW
2	0.0	0.0	3	0.2	17.174469	0.000000;	%	COW
2	0.0	0.0	3	0.2	16.769063	0.000000;	%	NG
2	0.0	0.0	3	0.2	7.339046	0.000000;	%	NUC
2	0.0	0.0	3	0.2	27.607326	0.000000;	%	COW
2	0.0	0.0	3	0.2	31.721585	0.000000;	%	NG
2	0.0	0.0	3	0.2	29.668915	0.000000;	%	COW
2	0.0	0.0	3	0.2	46.758357	0.000000;	%	NG
2	0.0	0.0	3	0.2	41.825286	0.000000;	%	NG
2	0.0	0.0	3	0.2	47.646661	0.000000;	%	NG
2	0.0	0.0	3	0.2	32.067232	0.000000;	%	COW
2	0.0	0.0	3	0.2	19.970659	0.000000;	%	COW
2	0.0	0.0	3	0.2	16.921934	0.000000;	%	COW
2	0.0	0.0	3	0.2	51.600653	0.000000;	%	NG
2	0.0	0.0	3	0.2	36.376379	0.000000;	%	COW
2	0.0	0.0	3	0.2	19.029629	0.000000;	%	COW
2	0.0	0.0	3	0.2	34.308365	0.000000;	%	NG
2	0.0	0.0	3	0.2	25.592384	0.000000;	%	NG
2	0.0	0.0	3	0.2	42.166446	0.000000;	%	NG
2	0.0	0.0	3	0.2	15.631872	0.000000;	%	COW
2	0.0	0.0	3	0.2	117.318042	0.000000;	%	PEL
2	0.0	0.0	3	0.2	28.823604	0.000000;	%	NG
2	0.0	0.0	3	0.2	115.595784	0.000000;	%	PEL
2	0.0	0.0	3	0.2	37.828949	0.000000;	%	COW
2	0.0	0.0	3	0.2	32.966792	0.000000;	%	NG
2	0.0	0.0	3	0.2	33.786891	0.000000;	%	NG
2	0.0	0.0	3	0.2	44.897676	0.000000;	%	NG
2	0.0	0.0	3	0.2	29.317995	0.000000;	%	NG
2	0.0	0.0	3	0.2	26.388353	0.000000;	%	COW
2	0.0	0.0	3	0.2	52.747682	0.000000;	%	NG
2	0.0	0.0	3	0.2	29.910533	0.000000;	%	COW
2	0.0	0.0	3	0.2	27.291461	0.000000;	%	NG
2	0.0	0.0	3	0.2	43.666185	0.000000;	%	NG
2	0.0	0.0	3	0.2	109.786992	0.000000;	%	PEL
2	0.0	0.0	3	0.2	27.144391	0.000000;	%	NG
2	0.0	0.0	3	0.2	46.513908	0.000000;	%	NG
2	0.0	0.0	3	0.2	23.995910	0.000000;	%	COW
2	0.0	0.0	3	0.2	39.130245	0.000000;	%	NG
2	0.0	0.0	3	0.2	19.092327	0.000000;	%	NG
2	0.0	0.0	3	0.2	39.920229	0.000000;	%	NG
2	0.0	0.0	3	0.2	35.214411	0.000000;	%	NG
2	0.0	0.0	3	0.2	27.360129	0.000000;	%	COW
2	0.0	0.0	3	0.2	43.605840	0.000000;	%	NG
2	0.0	0.0	3	0.2	42.601319	0.000000;	%	NG
2	0.0	0.0	3	0.2	30.162113	0.000000;	%	NG
2	0.0	0.0	3	0.2	26.943738	0.000000;	%	COW
2	0.0	0.0	3	0.2	41.885950	0.000000;	%	NG
2	0.0	0.0	3	0.2	30.568533	0.000000;	%	NG
2	0.0	0.0	3	0.2	28.464531	0.000000;	%	COW
2	0.0	0.0	3	0.2	12.699122	0.000000;	%	COW
2	0.0	0.0	3	0.2	41.589241	0.000000;	%	NG
2	0.0	0.0	3	0.2	61.010324	0.000000;	%	NG
2	0.0	0.0	3	0.2	28.863182	0.000000;	%	COW
2	0.0	0.0	3	0.2	20.344902	0.000000;	%	NG
2	0.0	0.0	3	0.2	50.380987	0.000000;	%	NG
2	0.0	0.0	3	0.2	32.694497	0.000000;	%	COW
2	0.0	0.0	3	0.2	40.352738	0.000000;	%	NG
2	0.0	0.0	3	0.2	17.157455	0.000000;	%	COW
2	0.0	0.0	3	0.2	24.945828	0.000000;	%	COW
2	0.0	0.0	3	0.2	18.065550	0.000000;	%	COW
2	0.0	0.0	3	0.2	13.460222	0.000000;	%	COW
2	0.0	0.0	3	0.2	30.347023	0.000000;	%	NG
2	0.0	0.0	3	0.2	50.260292	0.000000;	%	NG
...
];

%% storage data
%	bus	energy	energy_rating	charge_rating	discharge_rating	thermal_rating	qmin	qmax	r	x	standby_loss	status
mpc.storage = [
	8964	0.0	0.0	1.00	1388.8650	694.4325	499.9914	0.9	0.85	1000	-1000	1000	0.1	0.01	0	0	1;
	118	0.0	0.0	1.00	1056.7950	528.3975	380.4462	0.9	0.85	1000	-1000	1000	0.1	0.01	0	0	1;
	8335	0.0	0.0	1.00	956.8800	478.4400	344.4768	0.9	0.85	1000	-1000	1000	0.1	0.01	0	0	1;
	905	0.0	0.0	1.00	947.5650	473.7825	341.1234	0.9	0.85	1000	-1000	1000	0.1	0.01	0	0	1;
	9203	0.0	0.0	1.00	941.0400	470.5200	338.7744	0.9	0.85	1000	-1000	1000	0.1	0.01	0	0	1;
	838	0.0	0.0	1.00	923.7150	461.8575	332.5374	0.9	0.85	1000	-1000	1000	0.1	0.01	0	0	1;
	3083	0.0	0.0	1.00	851.9550	425.9775	306.7038	0.9	0.85	1000	-1000	1000	0.1	0.01	0	0	1;
	7563	0.0	0.0	1.00	797.5500	398.7750	287.1180	0.9	0.85	1000	-1000	1000	0.1	0.01	0	0	1;
	333	0.0	0.0	1.00	786.7500	393.3750	283.2300	0.9	0.85	1000	-1000	1000	0.1	0.01	0	0	1;
	7752	0.0	0.0	1.00	786.7500	393.3750	283.2300	0.9	0.85	1000	-1000	1000	0.1	0.01	0	0	1;
	8953	0.0	0.0	1.00	775.0500	387.5250	279.0180	0.9	0.85	1000	-1000	1000	0.1	0.01	0	0	1;
	3061	0.0	0.0	1.00	740.1000	370.0500	266.4360	0.9	0.85	1000	-1000	1000	0.1	0.01	0	0	1;
	4426	0.0	0.0	1.00	728.2500	364.1250	262.1700	0.9	0.85	1000	-1000	1000	0.1	0.01	0	0	1;
	1301	0.0	0.0	1.00	718.5000	359.2500	258.6600	0.9	0.85	1000	-1000	1000	0.1	0.01	0	0	1;
	2848	0.0	0.0	1.00	679.8450	339.9225	244.7442	0.9	0.85	1000	-1000	1000	0.1	0.01	0	0	1;
	1644	0.0	0.0	1.00	674.3400	337.1700	242.7624	0.9	0.85	1000	-1000	1000	0.1	0.01	0	0	1;
	5608	0.0	0.0	1.00	674.1000	337.0500	242.6760	0.9	0.85	1000	-1000	1000	0.1	0.01	0	0	1;
	6660	0.0	0.0	1.00	652.8000	326.4000	235.0080	0.9	0.85	1000	-1000	1000	0.1	0.01	0	0	1;
	6357	0.0	0.0	1.00	646.2000	323.1000	232.6320	0.9	0.85	1000	-1000	1000	0.1	0.01	0	0	1;
	6053	0.0	0.0	1.00	618.1500	309.0750	222.5340	0.9	0.85	1000	-1000	1000	0.1	0.01	0	0	1;
	5155	0.0	0.0	1.00	616.9500	308.4750	222.1020	0.9	0.85	1000	-1000	1000	0.1	0.01	0	0	1;
	8853	0.0	0.0	1.00	615.4500	307.7250	221.5620	0.9	0.85	1000	-1000	1000	0.1	0.01	0	0	1;
	1074	0.0	0.0	1.00	605.8500	302.9250	218.1060	0.9	0.85	1000	-1000	1000	0.1	0.01	0	0	1;
	2299	0.0	0.0	1.00	603.1500	301.5750	217.1340	0.9	0.85	1000	-1000	1000	0.1	0.01	0	0	1;
	726	0.0	0.0	1.00	600.4500	300.2250	216.1620	0.9	0.85	1000	-1000	1000	0.1	0.01	0	0	1;
	7256	0.0	0.0	1.00	588.3750	294.1875	211.8150	0.9	0.85	1000	-1000	1000	0.1	0.01	0	0	1;
	4665	0.0	0.0	1.00	585.7500	292.8750	210.8700	0.9	0.85	1000	-1000	1000	0.1	0.01	0	0	1;
	6960	0.0	0.0	1.00	584.7000	292.3500	210.4920	0.9	0.85	1000	-1000	1000	0.1	0.01	0	0	1;
	6639	0.0	0.0	1.00	582.0600	291.0300	209.5416	0.9	0.85	1000	-1000	1000	0.1	0.01	0	0	1;
	1035	0.0	0.0	1.00	573.7500	286.8750	206.5500	0.9	0.85	1000	-1000	1000	0.1	0.01	0	0	1;
	8439	0.0	0.0	1.00	571.2000	285.6000	205.6320	0.9	0.85	1000	-1000	1000	0.1	0.01	0	0	1;
	344	0.0	0.0	1.00	559.2000	279.6000	201.3120	0.9	0.85	1000	-1000	1000	0.1	0.01	0	0	1;
	174	0.0	0.0	1.00	555.7500	277.8750	200.0700	0.9	0.85	1000	-1000	1000	0.1	0.01	0	0	1;
	5332	0.0	0.0	1.00	549.9000	274.9500	197.9640	0.9	0.85	1000	-1000	1000	0.1	0.01	0	0	1;
	90	0.0	0.0	1.00	544.8750	272.4375	196.1550	0.9	0.85	1000	-1000	1000	0.1	0.01	0	0	1;
	5419	0.0	0.0	1.00	523.9500	261.9750	188.6220	0.9	0.85	1000	-1000	1000	0.1	0.01	0	0	1;
	1249	0.0	0.0	1.00	523.3950	261.6975	188.4222	0.9	0.85	1000	-1000	1000	0.1	0.01	0	0	1;
	5210	0.0	0.0	1.00	521.4150	260.7075	187.7094	0.9	0.85	1000	-1000	1000	0.1	0.01	0	0	1;
	7905	0.0	0.0	1.00	520.6500	260.3250	187.4340	0.9	0.85	1000	-1000	1000	0.1	0.01	0	0	1;
	7541	0.0	0.0	1.00	519.6300	259.8150	187.0668	0.9	0.85	1000	-1000	1000	0.1	0.01	0	0	1;
	772	0.0	0.0	1.00	515.8500	257.9250	185.7060	0.9	0.85	1000	-1000	1000	0.1	0.01	0	0	1;
	7047	0.0	0.0	1.00	509.8500	254.9250	183.5460	0.9	0.85	1000	-1000	1000	0.1	0.01	0	0	1;
	7895	0.0	0.0	1.00	508.0500	254.0250	182.8980	0.9	0.85	1000	-1000	1000	0.1	0.01	0	0	1;
	5720	0.0	0.0	1.00	506.4000	253.2000	182.3040	0.9	0.85	1000	-1000	1000	0.1	0.01	0	0	1;
	6542	0.0	0.0	1.00	505.0500	252.5250	181.8180	0.9	0.85	1000	-1000	1000	0.1	0.01	0	0	1;
	4495	0.0	0.0	1.00	504.4500	252.2250	181.6020	0.9	0.85	1000	-1000	1000	0.1	0.01	0	0	1;
	472	0.0	0.0	1.00	504.3000	252.1500	181.5480	0.9	0.85	1000	-1000	1000	0.1	0.01	0	0	1;
	5797	0.0	0.0	1.00	501.1500	250.5750	180.4140	0.9	0.85	1000	-1000	1000	0.1	0.01	0	0	1;
	1767	0.0	0.0	1.00	500.2500	250.1250	180.0900	0.9	0.85	1000	-1000	1000	0.1	0.01	0	0	1;
	3299	0.0	0.0	1.00	499.3500	249.6750	179.7660	0.9	0.85	1000	-1000	1000	0.1	0.01	0	0	1;
	4896	0.0	0.0	1.00	494.5500	247.2750	178.0380	0.9	0.85	1000	-1000	1000	0.1	0.01	0	0	1;
	6564	0.0	0.0	1.00	493.3500	246.6750	177.6060	0.9	0.85	1000	-1000	1000	0.1	0.01	0	0	1;
	6826	0.0	0.0	1.00	490.3500	245.1750	176.5260	0.9	0.85	1000	-1000	1000	0.1	0.01	0	0	1;
	4165	0.0	0.0	1.00	487.8000	243.9000	175.6080	0.9	0.85	1000	-1000	1000	0.1	0.01	0	0	1;
	207	0.0	0.0	1.00	482.9700	241.4850	173.8692	0.9	0.85	1000	-1000	1000	0.1	0.01	0	0	1;
	4936	0.0	0.0	1.00	468.3000	234.1500	168.5880	0.9	0.85	1000	-1000	1000	0.1	0.01	0	0	1;
	3954	0.0	0.0	1.00	466.2000	233.1000	167.8320	0.9	0.85	1000	-1000	1000	0.1	0.01	0	0	1;
	4144	0.0	0.0	1.00	465.3000	232.6500	167.5080	0.9	0.85	1000	-1000	1000	0.1	0.01	0	0	1;
	6697	0.0	0.0	1.00	463.5000	231.7500	166.8600	0.9	0.85	1000	-1000	1000	0.1	0.01	0	0	1;
	8691	0.0	0.0	1.00	457.5600	228.7800	164.7216	0.9	0.85	1000	-1000	1000	0.1	0.01	0	0	1;
	322	0.0	0.0	1.00	455.7000	227.8500	164.0520	0.9	0.85	1000	-1000	1000	0.1	0.01	0	0	1;
	8147	0.0	0.0	1.00	455.2500	227.6250	163.8900	0.9	0.85	1000	-1000	1000	0.1	0.01	0	0	1;
	3391	0.0	0.0	1.00	453.7500	226.8750	163.3500	0.9	0.85	1000	-1000	1000	0.1	0.01	0	0	1;
	2449	0.0	0.0	1.00	452.8500	226.4250	163.0260	0.9	0.85	1000	-1000	1000	0.1	0.01	0	0	1;
	1549	0.0	0.0	1.00	450.3000	225.1500	162.1080	0.9	0.85	1000	-1000	1000	0.1	0.01	0	0	1;
	4427	0.0	0.0	1.00	445.2000	222.6000	160.2720	0.9	0.85	1000	-1000	1000	0.1	0.01	0	0	1;
	3242	0.0	0.0	1.00	444.1500	222.0750	159.8940	0.9	0.85	1000	-1000	1000	0.1	0.01	0	0	1;
	3665	0.0	0.0	1.00	443.1000	221.5500	159.5160	0.9	0.85	1000	-1000	1000	0.1	0.01	0	0	1;
	792	0.0	0.0	1.00	442.9500	221.4750	159.4620	0.9	0.85	1000	-1000	1000	0.1	0.01	0	0	1;
	8534	0.0	0.0	1.00	442.8000	221.4000	159.4080	0.9	0.85	1000	-1000	1000	0.1	0.01	0	0	1;
	5317	0.0	0.0	1.00	439.8000	219.9000	158.3280	0.9	0.85	1000	-1000	1000	0.1	0.01	0	0	1;
	8180	0.0	0.0	1.00	437.4000	218.7000	157.4640	0.9	0.85	1000	-1000	1000	0.1	0.01	0	0	1;
	2432	0.0	0.0	1.00	436.8000	218.4000	157.2480	0.9	0.85	1000	-1000	1000	0.1	0.01	0	0	1;
	6174	0.0	0.0	1.00	433.6500	216.8250	156.1140	0.9	0.85	1000	-1000	1000	0.1	0.01	0	0	1;
	814	0.0	0.0	1.00	431.5500	215.7750	155.3580	0.9	0.85	1000	-1000	1000	0.1	0.01	0	0	1;
	8448	0.0	0.0	1.00	429.1500	214.5750	154.4940	0.9	0.85	1000	-1000	1000	0.1	0.01	0	0	1;
	2692	0.0	0.0	1.00	427.8000	213.9000	154.0080	0.9	0.85	1000	-1000	1000	0.1	0.01	0	0	1;
	8459	0.0	0.0	1.00	427.8000	213.9000	154.0080	0.9	0.85	1000	-1000	1000	0.1	0.01	0	0	1;
	8874	0.0	0.0	1.00	427.8000	213.9000	154.0080	0.9	0.85	1000	-1000	1000	0.1	0.01	0	0	1;
	8748	0.0	0.0	1.00	419.5500	209.7750	151.0380	0.9	0.85	1000	-1000	1000	0.1	0.01	0	0	1;
	8893	0.0	0.0	1.00	417.4500	208.7250	150.2820	0.9	0.85	1000	-1000	1000	0.1	0.01	0	0	1;
	1081	0.0	0.0	1.00	416.7900	208.3950	150.0444	0.9	0.85	1000	-1000	1000	0.1	0.01	0	0	1;
	3579	0.0	0.0	1.00	416.5800	208.2900	149.9688	0.9	0.85	1000	-1000	1000	0.1	0.01	0	0	1;
	527	0.0	0.0	1.00	416.5500	208.2750	149.9580	0.9	0.85	1000	-1000	1000	0.1	0.01	0	0	1;
	8628	0.0	0.0	1.00	415.6500	207.8250	149.6340	0.9	0.85	1000	-1000	1000	0.1	0.01	0	0	1;
	455	0.0	0.0	1.00	411.4800	205.7400	148.1328	0.9	0.85	1000	-1000	1000	0.1	0.01	0	0	1;
	1611	0.0	0.0	1.00	411.1500	205.5750	148.0140	0.9	0.85	1000	-1000	1000	0.1	0.01	0	0	1;
	3067	0.0	0.0	1.00	408.4500	204.2250	147.0420	0.9	0.85	1000	-1000	1000	0.1	0.01	0	0	1;
	2233	0.0	0.0	1.00	404.8500	202.4250	145.7460	0.9	0.85	1000	-1000	1000	0.1	0.01	0	0	1;
	8417	0.0	0.0	1.00	399.0000	199.5000	143.6400	0.9	0.85	1000	-1000	1000	0.1	0.01	0	0	1;
	4032	0.0	0.0	1.00	398.5500	199.2750	143.4780	0.9	0.85	1000	-1000	1000	0.1	0.01	0	0	1;
	8334	0.0	0.0	1.00	395.9400	197.9700	142.5384	0.9	0.85	1000	-1000	1000	0.1	0.01	0	0	1;
	7069	0.0	0.0	1.00	388.1850	194.0925	139.7466	0.9	0.85	1000	-1000	1000	0.1	0.01	0	0	1;
	658	0.0	0.0	1.00	387.6000	193.8000	139.5360	0.9	0.85	1000	-1000	1000	0.1	0.01	0	0	1;
	7310	0.0	0.0	1.00	384.0000	192.0000	138.2400	0.9	0.85	1000	-1000	1000	0.1	0.01	0	0	1;
	2591	0.0	0.0	1.00	380.6550	190.3275	137.0358	0.9	0.85	1000	-1000	1000	0.1	0.01	0	0	1;
	2668	0.0	0.0	1.00	379.3500	189.6750	136.5660	0.9	0.85	1000	-1000	1000	0.1	0.01	0	0	1;
	3231	0.0	0.0	1.00	376.9500	188.4750	135.7020	0.9	0.85	1000	-1000	1000	0.1	0.01	0	0	1;
	1965	0.0	0.0	1.00	373.0500	186.5250	134.2980	0.9	0.85	1000	-1000	1000	0.1	0.01	0	0	1;
	5213	0.0	0.0	1.00	370.2000	185.1000	133.2720	0.9	0.85	1000	-1000	1000	0.1	0.01	0	0	1;
	6381	0.0	0.0	1.00	369.3000	184.6500	132.9480	0.9	0.85	1000	-1000	1000	0.1	0.01	0	0	1;
	9130	0.0	0.0	1.00	368.2650	184.1325	132.5754	0.9	0.85	1000	-1000	1000	0.1	0.01	0	0	1;
	955	0.0	0.0	1.00	366.3000	183.1500	131.8680	0.9	0.85	1000	-1000	1000	0.1	0.01	0	0	1;
	6744	0.0	0.0	1.00	366.1800	183.0900	131.8248	0.9	0.85	1000	-1000	1000	0.1	0.01	0	0	1;
	5836	0.0	0.0	1.00	366.1350	183.0675	131.8086	0.9	0.85	1000	-1000	1000	0.1	0.01	0	0	1;
	3121	0.0	0.0	1.00	363.2400	181.6200	130.7664	0.9	0.85	1000	-1000	1000	0.1	0.01	0	0	1;
	9231	0.0	0.0	1.00	363.1200	181.5600	130.7232	0.9	0.85	1000	-1000	1000	0.1	0.01	0	0	1;
	1974	0.0	0.0	1.00	362.8500	181.4250	130.6260	0.9	0.85	1000	-1000	1000	0.1	0.01	0	0	1;
	5400	0.0	0.0	1.00	362.4300	181.2150	130.4748	0.9	0.85	1000	-1000	1000	0.1	0.01	0	0	1;
	1025	0.0	0.0	1.00	362.1000	181.0500	130.3560	0.9	0.85	1000	-1000	1000	0.1	0.01	0	0	1;
	2907	0.0	0.0	1.00	361.5000	180.7500	130.1400	0.9	0.85	1000	-1000	1000	0.1	0.01	0	0	1;
	2526	0.0	0.0	1.00	357.6750	178.8375	128.7630	0.9	0.85	1000	-1000	1000	0.1	0.01	0	0	1;
	1445	0.0	0.0	1.00	357.6000	178.8000	128.7360	0.9	0.85	1000	-1000	1000	0.1	0.01	0	0	1;
	7972	0.0	0.0	1.00	356.8500	178.4250	128.4660	0.9	0.85	1000	-1000	1000	0.1	0.01	0	0	1;
	5525	0.0	0.0	1.00	354.4950	177.2475	127.6182	0.9	0.85	1000	-1000	1000	0.1	0.01	0	0	1;
	8494	0.0	0.0	1.00	353.9550	176.9775	127.4238	0.9	0.85	1000	-1000	1000	0.1	0.01	0	0	1;
	4357	0.0	0.0	1.00	352.5000	176.2500	126.9000	0.9	0.85	1000	-1000	1000	0.1	0.01	0	0	1;
	7974	0.0	0.0	1.00	351.0000	175.5000	126.3600	0.9	0.85	1000	-1000	1000	0.1	0.01	0	0	1;
	7980	0.0	0.0	1.00	350.2500	175.1250	126.0900	0.9	0.85	1000	-1000	1000	0.1	0.01	0	0	1;
	678	0.0	0.0	1.00	348.1500	174.0750	125.3340	0.9	0.85	1000	-1000	1000	0.1	0.01	0	0	1;
	6220	0.0	0.0	1.00	347.8500	173.9250	125.2260	0.9	0.85	1000	-1000	1000	0.1	0.01	0	0	1;
	2931	0.0	0.0	1.00	346.0500	173.0250	124.5780	0.9	0.85	1000	-1000	1000	0.1	0.01	0	0	1;
	1221	0.0	0.0	1.00	345.7500	172.8750	124.4700	0.9	0.85	1000	-1000	1000	0.1	0.01	0	0	1;
	4124	0.0	0.0	1.00	345.6300	172.8150	124.4268	0.9	0.85	1000	-1000	1000	0.1	0.01	0	0	1;
	5146	0.0	0.0	1.00	344.8500	172.4250	124.1460	0.9	0.85	1000	-1000	1000	0.1	0.01	0	0	1;
	7021	0.0	0.0	1.00	340.2000	170.1000	122.4720	0.9	0.85	1000	-1000	1000	0.1	0.01	0	0	1;
	8661	0.0	0.0	1.00	340.0500	170.0250	122.4180	0.9	0.85	1000	-1000	1000	0.1	0.01	0	0	1;
	3493	0.0	0.0	1.00	339.4500	169.7250	122.2020	0.9	0.85	1000	-1000	1000	0.1	0.01	0	0	1;
	9206	0.0	0.0	1.00	339.1500	169.5750	122.0940	0.9	0.85	1000	-1000	1000	0.1	0.01	0	0	1;
	3813	0.0	0.0	1.00	339.0000	169.5000	122.0400	0.9	0.85	1000	-1000	1000	0.1	0.01	0	0	1;
	5616	0.0	0.0	1.00	337.8000	168.9000	121.6080	0.9	0.85	1000	-1000	1000	0.1	0.01	0	0	1;
	7772	0.0	0.0	1.00	335.4000	167.7000	120.7440	0.9	0.85	1000	-1000	1000	0.1	0.01	0	0	1;
	5776	0.0	0.0	1.00	334.0500	167.0250	120.2580	0.9	0.85	1000	-1000	1000	0.1	0.01	0	0	1;
	7132	0.0	0.0	1.00	333.0000	166.5000	119.8800	0.9	0.85	1000	-1000	1000	0.1	0.01	0	0	1;
	5203	0.0	0.0	1.00	332.8500	166.4250	119.8260	0.9	0.85	1000	-1000	1000	0.1	0.01	0	0	1;
	6119	0.0	0.0	1.00	331.8750	165.9375	119.4750	0.9	0.85	1000	-1000	1000	0.1	0.01	0	0	1;
	3037	0.0	0.0	1.00	331.5000	165.7500	119.3400	0.9	0.85	1000	-1000	1000	0.1	0.01	0	0	1;
	7042	0.0	0.0	1.00	331.4700	165.7350	119.3292	0.9	0.85	1000	-1000	1000	0.1	0.01	0	0	1;
	7252	0.0	0.0	1.00	331.2000	165.6000	119.2320	0.9	0.85	1000	-1000	1000	0.1	0.01	0	0	1;
	3966	0.0	0.0	1.00	331.0500	165.5250	119.1780	0.9	0.85	1000	-1000	1000	0.1	0.01	0	0	1;
	7273	0.0	0.0	1.00	329.4000	164.7000	118.5840	0.9	0.85	1000	-1000	1000	0.1	0.01	0	0	1;
	4950	0.0	0.0	1.00	328.0500	164.0250	118.0980	0.9	0.85	1000	-1000	1000	0.1	0.01	0	0	1;
	8373	0.0	0.0	1.00	324.4500	162.2250	116.8020	0.9	0.85	1000	-1000	1000	0.1	0.01	0	0	1;
	8467	0.0	0.0	1.00	324.3000	162.1500	116.7480	0.9	0.85	1000	-1000	1000	0.1	0.01	0	0	1;
	6561	0.0	0.0	1.00	324.0000	162.0000	116.6400	0.9	0.85	1000	-1000	1000	0.1	0.01	0	0	1;
	2360	0.0	0.0	1.00	323.2500	161.6250	116.3700	0.9	0.85	1000	-1000	1000	0.1	0.01	0	0	1;
	1064	0.0	0.0	1.00	322.8000	161.4000	116.2080	0.9	0.85	1000	-1000	1000	0.1	0.01	0	0	1;
	2202	0.0	0.0	1.00	319.5000	159.7500	115.0200	0.9	0.85	1000	-1000	1000	0.1	0.01	0	0	1;
	4806	0.0	0.0	1.00	316.2000	158.1000	113.8320	0.9	0.85	1000	-1000	1000	0.1	0.01	0	0	1;
	1973	0.0	0.0	1.00	315.1500	157.5750	113.4540	0.9	0.85	1000	-1000	1000	0.1	0.01	0	0	1;
	6188	0.0	0.0	1.00	314.8500	157.4250	113.3460	0.9	0.85	1000	-1000	1000	0.1	0.01	0	0	1;
	3462	0.0	0.0	1.00	314.2500	157.1250	113.1300	0.9	0.85	1000	-1000	1000	0.1	0.01	0	0	1;
	1866	0.0	0.0	1.00	313.8000	156.9000	112.9680	0.9	0.85	1000	-1000	1000	0.1	0.01	0	0	1;
	2286	0.0	0.0	1.00	313.3200	156.6600	112.7952	0.9	0.85	1000	-1000	1000	0.1	0.01	0	0	1;
	8843	0.0	0.0	1.00	313.0500	156.5250	112.6980	0.9	0.85	1000	-1000	1000	0.1	0.01	0	0	1;
	5957	0.0	0.0	1.00	312.0900	156.0450	112.3524	0.9	0.85	1000	-1000	1000	0.1	0.01	0	0	1;
	8213	0.0	0.0	1.00	311.8500	155.9250	112.2660	0.9	0.85	1000	-1000	1000	0.1	0.01	0	0	1;
	519	0.0	0.0	1.00	310.8000	155.4000	111.8880	0.9	0.85	1000	-1000	1000	0.1	0.01	0	0	1;
	2654	0.0	0.0	1.00	310.6500	155.3250	111.8340	0.9	0.85	1000	-1000	1000	0.1	0.01	0	0	1;
	8098	0.0	0.0	1.00	309.6000	154.8000	111.4560	0.9	0.85	1000	-1000	1000	0.1	0.01	0	0	1;
	2551	0.0	0.0	1.00	307.9500	153.9750	110.8620	0.9	0.85	1000	-1000	1000	0.1	0.01	0	0	1;
	1437	0.0	0.0	1.00	306.9000	153.4500	110.4840	0.9	0.85	1000	-1000	1000	0.1	0.01	0	0	1;
	2908	0.0	0.0	1.00	305.7000	152.8500	110.0520	0.9	0.85	1000	-1000	1000	0.1	0.01	0	0	1;
	8808	0.0	0.0	1.00	305.4000	152.7000	109.9440	0.9	0.85	1000	-1000	1000	0.1	0.01	0	0	1;
	2629	0.0	0.0	1.00	304.6500	152.3250	109.6740	0.9	0.85	1000	-1000	1000	0.1	0.01	0	0	1;
	1282	0.0	0.0	1.00	303.0000	151.5000	109.0800	0.9	0.85	1000	-1000	1000	0.1	0.01	0	0	1;
	1026	0.0	0.0	1.00	302.1000	151.0500	108.7560	0.9	0.85	1000	-1000	1000	0.1	0.01	0	0	1;
	3866	0.0	0.0	1.00	301.5900	150.7950	108.5724	0.9	0.85	1000	-1000	1000	0.1	0.01	0	0	1;
	4189	0.0	0.0	1.00	300.9750	150.4875	108.3510	0.9	0.85	1000	-1000	1000	0.1	0.01	0	0	1;
	2089	0.0	0.0	1.00	299.7900	149.8950	107.9244	0.9	0.85	1000	-1000	1000	0.1	0.01	0	0	1;
	6659	0.0	0.0	1.00	299.4000	149.7000	107.7840	0.9	0.85	1000	-1000	1000	0.1	0.01	0	0	1;
	6879	0.0	0.0	1.00	299.4000	149.7000	107.7840	0.9	0.85	1000	-1000	1000	0.1	0.01	0	0	1;
	1183	0.0	0.0	1.00	299.1000	149.5500	107.6760	0.9	0.85	1000	-1000	1000	0.1	0.01	0	0	1;
	5681	0.0	0.0	1.00	297.1500	148.5750	106.9740	0.9	0.85	1000	-1000	1000	0.1	0.01	0	0	1;
...